* NGSPICE file created from TOP.ext - technology: gf180mcuD

.subckt gf180mcu_fd_sc_mcu9t5v0__tieh$2 VDD VSS Z VNW VPW a_125_157#
X0 Z a_125_157# VDD VNW pfet_05v0 ad=0.396p pd=2.68u as=0.396p ps=2.68u w=0.9u l=0.5u
X1 a_125_157# a_125_157# VSS VPW nfet_05v0 ad=0.2904p pd=2.2u as=0.2904p ps=2.2u w=0.66u l=0.6u
C0 VDD Z 0.05696f
C1 VSS a_125_157# 0.05594f
C2 VDD VSS 0.02071f
C3 VNW a_125_157# 0.13984f
C4 VNW VDD 0.13685f
C5 VDD a_125_157# 0.02505f
C6 VNW Z 0.01694f
C7 Z a_125_157# 0.0165f
C8 VNW VSS 0.01055f
C9 VSS VPW 0.31582f
C10 Z VPW 0.02933f
C11 VDD VPW 0.23581f
C12 VNW VPW 1.19226f
C13 a_125_157# VPW 0.37323f
.ends

.subckt gf180mcu_fd_sc_mcu9t5v0__tiel$3 VDD VSS ZN VNW VPW a_124_157#
X0 ZN a_124_157# VSS VPW nfet_05v0 ad=0.2904p pd=2.2u as=0.2904p ps=2.2u w=0.66u l=0.6u
X1 a_124_157# a_124_157# VDD VNW pfet_05v0 ad=0.396p pd=2.68u as=0.396p ps=2.68u w=0.9u l=0.5u
C0 VDD VSS 0.02032f
C1 ZN a_124_157# 0.02544f
C2 VDD ZN 0
C3 VNW a_124_157# 0.15591f
C4 VSS ZN 0.03448f
C5 VNW VDD 0.13657f
C6 VDD a_124_157# 0.08266f
C7 VNW VSS 0.01117f
C8 VSS a_124_157# 0.03129f
C9 VNW ZN 0
C10 ZN VPW 0.02686f
C11 VSS VPW 0.31286f
C12 VDD VPW 0.23555f
C13 VNW VPW 1.19226f
C14 a_124_157# VPW 0.3723f
.ends

.subckt sc_tieh_tiel$1 tieH tieL gf180mcu_fd_sc_mcu9t5v0__tieh$2_0/a_125_157# VDD
+ gf180mcu_fd_sc_mcu9t5v0__tiel$3_0/a_124_157# VSS
Xgf180mcu_fd_sc_mcu9t5v0__tieh$2_0 VDD VSS tieH VDD VSS gf180mcu_fd_sc_mcu9t5v0__tieh$2_0/a_125_157#
+ gf180mcu_fd_sc_mcu9t5v0__tieh$2
Xgf180mcu_fd_sc_mcu9t5v0__tiel$3_0 VDD VSS tieL VDD VSS gf180mcu_fd_sc_mcu9t5v0__tiel$3_0/a_124_157#
+ gf180mcu_fd_sc_mcu9t5v0__tiel$3
C0 tieH VSS 0.01457f
C1 gf180mcu_fd_sc_mcu9t5v0__tiel$3_0/a_124_157# VDD 0.02329f
C2 gf180mcu_fd_sc_mcu9t5v0__tieh$2_0/a_125_157# VDD 0.00888f
C3 gf180mcu_fd_sc_mcu9t5v0__tiel$3_0/a_124_157# tieL 0.01483f
C4 VDD VSS 0.29762f
C5 gf180mcu_fd_sc_mcu9t5v0__tieh$2_0/a_125_157# tieL 0
C6 tieL VSS 0.08309f
C7 gf180mcu_fd_sc_mcu9t5v0__tiel$3_0/a_124_157# gf180mcu_fd_sc_mcu9t5v0__tieh$2_0/a_125_157# 0.0027f
C8 tieH VDD 0.08219f
C9 gf180mcu_fd_sc_mcu9t5v0__tiel$3_0/a_124_157# VSS 0.01505f
C10 tieH tieL 0.01031f
C11 gf180mcu_fd_sc_mcu9t5v0__tieh$2_0/a_125_157# VSS 0.02873f
C12 tieL VDD 0.03191f
C13 tieH gf180mcu_fd_sc_mcu9t5v0__tieh$2_0/a_125_157# 0.00414f
C14 VSS 0 1.29627f
C15 VDD 0 3.38527f
C16 tieL 0 0.16778f
C17 gf180mcu_fd_sc_mcu9t5v0__tiel$3_0/a_124_157# 0 0.3723f
C18 tieH 0 0.13137f
C19 gf180mcu_fd_sc_mcu9t5v0__tieh$2_0/a_125_157# 0 0.37323f
.ends

.subckt ppolyf_u_9H3LNU$2 a_n224793_504053# w_n225009_503837# a_n224793_506155# VSUBS
X0 a_n224793_506155# a_n224793_504053# w_n225009_503837# ppolyf_u r_width=40u r_length=10u
C0 a_n224793_504053# w_n225009_503837# 6.29946f
C1 a_n224793_506155# w_n225009_503837# 6.29946f
C2 a_n224793_504053# VSUBS 4.5322f
C3 a_n224793_506155# VSUBS 4.5322f
C4 w_n225009_503837# VSUBS 72.7085f
.ends

.subckt diode_nd2ps_06v0_MV3SZ3$2 a_505271_219793# a_503039_219793# a_507503_219793#
+ a_500807_219793# a_500655_219641#
D0 a_500655_219641# a_505271_219793# diode_nd2ps_06v0 pj=40u area=99.99999p
D1 a_500655_219641# a_500807_219793# diode_nd2ps_06v0 pj=40u area=99.99999p
D2 a_500655_219641# a_503039_219793# diode_nd2ps_06v0 pj=40u area=99.99999p
D3 a_500655_219641# a_507503_219793# diode_nd2ps_06v0 pj=40u area=99.99999p
C0 a_507503_219793# a_500655_219641# 3.83321f
C1 a_505271_219793# a_500655_219641# 3.83321f
C2 a_503039_219793# a_500655_219641# 3.83321f
C3 a_500807_219793# a_500655_219641# 3.83321f
.ends

.subckt diode_pd2nw_06v0_5DG9HC$2 a_507479_219793# a_500831_219793# w_500655_219617#
+ a_503047_219793# a_505263_219793# a_500511_219473#
D0 a_500831_219793# w_500655_219617# diode_pd2nw_06v0 pj=40u area=99.99999p
D1 a_507479_219793# w_500655_219617# diode_pd2nw_06v0 pj=40u area=99.99999p
D2 a_503047_219793# w_500655_219617# diode_pd2nw_06v0 pj=40u area=99.99999p
D3 a_505263_219793# w_500655_219617# diode_pd2nw_06v0 pj=40u area=99.99999p
C0 w_500655_219617# a_503047_219793# 4.17112f
C1 a_505263_219793# w_500655_219617# 4.17112f
C2 a_500831_219793# w_500655_219617# 4.17112f
C3 a_507479_219793# w_500655_219617# 4.17112f
C4 w_500655_219617# a_500511_219473# 73.4915f
.ends

.subckt io_secondary_5p0$1 m1_512035_219553# m1_499212_228525# VSUBS m1_497955_232243#
Xppolyf_u_9H3LNU_0 m1_499212_228525# m1_497955_232243# m1_512035_219553# VSUBS ppolyf_u_9H3LNU$2
Xdiode_nd2ps_06v0_MV3SZ3_0 m1_499212_228525# m1_499212_228525# m1_499212_228525# m1_499212_228525#
+ VSUBS diode_nd2ps_06v0_MV3SZ3$2
Xdiode_pd2nw_06v0_5DG9HC_0 m1_499212_228525# m1_499212_228525# m1_497955_232243# m1_499212_228525#
+ m1_499212_228525# VSUBS diode_pd2nw_06v0_5DG9HC$2
C0 m1_499212_228525# m1_497955_232243# 16.86721f
C1 m1_512035_219553# m1_497955_232243# 11.99056f
C2 m1_499212_228525# VSUBS 0.15225p
C3 m1_512035_219553# VSUBS 5.38418f
C4 m1_497955_232243# VSUBS 0.17048p
.ends

.subckt M a_402461_244568# a_410134_251737# a_408568_255933# a_403521_244568# a_365828_259091#
+ a_411044_251737# a_409618_256263# a_409618_260539# a_404831_244568# a_401271_243528#
+ a_409818_256643# a_403251_244568# a_365828_265695# a_404311_244568# a_376520_259212#
+ a_401941_244568# a_395682_259299# a_404041_244568# a_409498_256643# a_402731_244568#
+ a_401151_244568# a_411044_242557# w_364522_258756#
X0 w_364522_258756# w_364522_258756# w_364522_258756# w_364522_258756# pfet_03v3 ad=5.8p pd=21.16u as=0.4068n ps=1.46136m w=10u l=2u
X1 a_365708_259299# a_365708_259299# w_364522_258756# w_364522_258756# pfet_03v3 ad=6p pd=21.2u as=6p ps=21.2u w=10u l=2u
X2 a_365708_259299# a_365708_259299# w_364522_258756# w_364522_258756# pfet_03v3 ad=6p pd=21.2u as=6p ps=21.2u w=10u l=2u
X3 a_402461_244568# a_401271_243528# a_401941_244568# w_364522_258756# pfet_03v3 ad=6p pd=21.2u as=6p ps=21.2u w=10u l=2u
X4 w_364522_258756# w_364522_258756# w_364522_258756# w_364522_258756# pfet_03v3 ad=5.8p pd=21.16u as=0 ps=0 w=10u l=2u
X5 w_364522_258756# w_364522_258756# w_364522_258756# w_364522_258756# pfet_03v3 ad=5.8p pd=21.16u as=0 ps=0 w=10u l=2u
X6 a_404311_244568# a_401151_244568# w_364522_258756# w_364522_258756# pfet_03v3 ad=6p pd=21.2u as=6p ps=21.2u w=10u l=2u
X7 w_364522_258756# w_364522_258756# w_364522_258756# w_364522_258756# pfet_03v3 ad=5.8p pd=21.16u as=0 ps=0 w=10u l=2u
X8 a_374398_259299# a_365828_259091# a_373878_259299# w_364522_258756# pfet_03v3 ad=6p pd=21.2u as=6p ps=21.2u w=10u l=2u
X9 a_386992_259299# a_386992_259299# w_364522_258756# w_364522_258756# pfet_03v3 ad=6p pd=21.2u as=6p ps=21.2u w=10u l=2u
X10 w_364522_258756# w_364522_258756# w_364522_258756# w_364522_258756# pfet_03v3 ad=5.8p pd=21.16u as=0 ps=0 w=10u l=2u
X11 a_383940_262205# a_383940_262205# a_386992_259299# w_364522_258756# pfet_03v3 ad=6p pd=21.2u as=6p ps=21.2u w=10u l=2u
X12 w_364522_258756# w_364522_258756# w_364522_258756# w_364522_258756# pfet_03v3 ad=5.8p pd=21.16u as=0 ps=0 w=10u l=2u
X13 a_401151_244568# a_401151_244568# w_364522_258756# w_364522_258756# pfet_03v3 ad=6p pd=21.2u as=6p ps=21.2u w=10u l=2u
X14 a_404041_244568# a_409618_256263# a_409618_260539# a_376520_259212# nfet_03v3 ad=2.4p pd=9.2u as=2.4p ps=9.2u w=4u l=1u
X15 a_376520_259212# a_376520_259212# a_376520_259212# a_376520_259212# nfet_03v3 ad=4.64p pd=17.16u as=0.1744n ps=0.65672m w=8u l=1u
X16 a_376520_259212# a_376520_259212# a_376520_259212# a_376520_259212# nfet_03v3 ad=2.32p pd=9.16u as=0 ps=0 w=4u l=1u
X17 a_365828_259091# a_365828_259091# a_365708_259299# w_364522_258756# pfet_03v3 ad=6p pd=21.2u as=6p ps=21.2u w=10u l=2u
X18 a_409618_256263# a_409618_260539# a_376520_259212# a_376520_259212# nfet_03v3 ad=2.4p pd=9.2u as=2.4p ps=9.2u w=4u l=1u
X19 a_365828_259091# a_365828_259091# a_365708_259299# w_364522_258756# pfet_03v3 ad=6p pd=21.2u as=6p ps=21.2u w=10u l=2u
X20 a_409618_256263# a_409498_256643# a_376520_259212# a_376520_259212# nfet_03v3 ad=2.4p pd=9.2u as=2.4p ps=9.2u w=4u l=1u
X21 a_377450_262205# a_377450_262205# a_376520_259212# a_376520_259212# nfet_03v3 ad=4.8p pd=17.2u as=4.8p ps=17.2u w=8u l=1u
X22 a_376520_259212# a_376520_259212# a_376520_259212# a_376520_259212# nfet_03v3 ad=4.64p pd=17.16u as=0 ps=0 w=8u l=1u
X23 a_376520_259212# a_376520_259212# a_376520_259212# a_376520_259212# nfet_03v3 ad=2.32p pd=9.16u as=0 ps=0 w=4u l=1u
X24 a_409618_256263# a_409618_260539# a_376520_259212# a_376520_259212# nfet_03v3 ad=2.4p pd=9.2u as=2.4p ps=9.2u w=4u l=1u
X25 a_377450_262205# a_377450_262205# a_376520_259212# a_376520_259212# nfet_03v3 ad=4.8p pd=17.2u as=4.8p ps=17.2u w=8u l=1u
X26 a_401151_244568# a_365828_265695# w_364522_258756# w_364522_258756# pfet_03v3 ad=6p pd=21.2u as=6p ps=21.2u w=10u l=2u
X27 w_364522_258756# w_364522_258756# w_364522_258756# w_364522_258756# pfet_03v3 ad=5.8p pd=21.16u as=0 ps=0 w=10u l=2u
X28 a_376520_259212# a_376520_259212# a_376520_259212# a_376520_259212# nfet_03v3 ad=4.64p pd=17.16u as=0 ps=0 w=8u l=1u
X29 a_365708_259299# a_365708_259299# w_364522_258756# w_364522_258756# pfet_03v3 ad=6p pd=21.2u as=6p ps=21.2u w=10u l=2u
X30 a_374398_259299# a_374398_259299# a_377450_262205# a_376520_259212# nfet_03v3 ad=4.8p pd=17.2u as=4.8p ps=17.2u w=8u l=1u
X31 a_401151_244568# a_365828_265695# w_364522_258756# w_364522_258756# pfet_03v3 ad=6p pd=21.2u as=6p ps=21.2u w=10u l=2u
X32 a_383940_262205# a_383940_262205# a_386992_259299# w_364522_258756# pfet_03v3 ad=6p pd=21.2u as=6p ps=21.2u w=10u l=2u
X33 a_376520_259212# a_376520_259212# a_376520_259212# a_376520_259212# nfet_03v3 ad=2.32p pd=9.16u as=0 ps=0 w=4u l=1u
X34 a_404041_244568# a_401271_243528# a_403521_244568# w_364522_258756# pfet_03v3 ad=6p pd=21.2u as=6p ps=21.2u w=10u l=2u
X35 a_395162_259299# a_386992_259299# w_364522_258756# w_364522_258756# pfet_03v3 ad=6p pd=21.2u as=6p ps=21.2u w=10u l=2u
X36 a_386992_259299# a_386992_259299# w_364522_258756# w_364522_258756# pfet_03v3 ad=6p pd=21.2u as=6p ps=21.2u w=10u l=2u
X37 a_376520_259212# a_376520_259212# a_376520_259212# a_376520_259212# nfet_03v3 ad=2.32p pd=9.16u as=0 ps=0 w=4u l=1u
X38 a_374398_259299# a_374398_259299# a_377450_262205# a_376520_259212# nfet_03v3 ad=4.8p pd=17.2u as=4.8p ps=17.2u w=8u l=1u
X39 a_377450_262205# a_377450_262205# a_376520_259212# a_376520_259212# nfet_03v3 ad=4.8p pd=17.2u as=4.8p ps=17.2u w=8u l=1u
X40 a_376520_259212# a_376520_259212# a_376520_259212# a_376520_259212# nfet_03v3 ad=4.64p pd=17.16u as=0 ps=0 w=8u l=1u
X41 a_365708_259299# a_365708_259299# w_364522_258756# w_364522_258756# pfet_03v3 ad=6p pd=21.2u as=6p ps=21.2u w=10u l=2u
X42 a_365708_259299# a_365708_259299# w_364522_258756# w_364522_258756# pfet_03v3 ad=6p pd=21.2u as=6p ps=21.2u w=10u l=2u
X43 a_377450_262205# a_377450_262205# a_376520_259212# a_376520_259212# nfet_03v3 ad=4.8p pd=17.2u as=4.8p ps=17.2u w=8u l=1u
X44 a_386992_259299# a_386992_259299# w_364522_258756# w_364522_258756# pfet_03v3 ad=6p pd=21.2u as=6p ps=21.2u w=10u l=2u
X45 w_364522_258756# w_364522_258756# w_364522_258756# w_364522_258756# pfet_03v3 ad=5.8p pd=21.16u as=0 ps=0 w=10u l=2u
X46 a_374398_259299# a_374398_259299# a_377450_262205# a_376520_259212# nfet_03v3 ad=4.8p pd=17.2u as=4.8p ps=17.2u w=8u l=1u
X47 a_365708_259299# a_365708_259299# w_364522_258756# w_364522_258756# pfet_03v3 ad=6p pd=21.2u as=6p ps=21.2u w=10u l=2u
X48 a_402731_244568# a_401151_244568# w_364522_258756# w_364522_258756# pfet_03v3 ad=6p pd=21.2u as=6p ps=21.2u w=10u l=2u
X49 a_365708_259299# a_365828_265695# w_364522_258756# w_364522_258756# pfet_03v3 ad=6p pd=21.2u as=6p ps=21.2u w=10u l=2u
X50 a_374398_259299# a_374398_259299# a_377450_262205# a_376520_259212# nfet_03v3 ad=4.8p pd=17.2u as=4.8p ps=17.2u w=8u l=1u
X51 a_365828_259091# a_365828_259091# a_365708_259299# w_364522_258756# pfet_03v3 ad=6p pd=21.2u as=6p ps=21.2u w=10u l=2u
X52 a_376520_259212# a_376520_259212# a_376520_259212# a_376520_259212# nfet_03v3 ad=2.32p pd=9.16u as=0 ps=0 w=4u l=1u
X53 a_386992_259299# a_386992_259299# w_364522_258756# w_364522_258756# pfet_03v3 ad=6p pd=21.2u as=6p ps=21.2u w=10u l=2u
X54 a_376520_259212# a_376520_259212# a_376520_259212# a_376520_259212# nfet_03v3 ad=2.32p pd=9.16u as=0 ps=0 w=4u l=1u
X55 w_364522_258756# w_364522_258756# w_364522_258756# w_364522_258756# pfet_03v3 ad=5.8p pd=21.16u as=0 ps=0 w=10u l=2u
X56 a_376520_259212# a_376520_259212# a_376520_259212# a_376520_259212# nfet_03v3 ad=2.32p pd=9.16u as=0 ps=0 w=4u l=1u
X57 a_409498_256643# a_404041_244568# a_376520_259212# a_376520_259212# nfet_03v3 ad=2.4p pd=9.2u as=2.4p ps=9.2u w=4u l=1u
X58 a_395682_259299# a_383940_262205# a_395162_259299# w_364522_258756# pfet_03v3 ad=6p pd=21.2u as=6p ps=21.2u w=10u l=2u
X59 a_383940_262205# a_383940_262205# a_386992_259299# w_364522_258756# pfet_03v3 ad=6p pd=21.2u as=6p ps=21.2u w=10u l=2u
X60 w_364522_258756# w_364522_258756# w_364522_258756# w_364522_258756# pfet_03v3 ad=5.8p pd=21.16u as=0 ps=0 w=10u l=2u
X61 a_409618_260539# a_404041_244568# a_376520_259212# a_376520_259212# nfet_03v3 ad=2.4p pd=9.2u as=2.4p ps=9.2u w=4u l=1u
X62 a_401941_244568# a_401151_244568# w_364522_258756# w_364522_258756# pfet_03v3 ad=6p pd=21.2u as=6p ps=21.2u w=10u l=2u
X63 w_364522_258756# w_364522_258756# w_364522_258756# w_364522_258756# pfet_03v3 ad=5.8p pd=21.16u as=0 ps=0 w=10u l=2u
X64 a_365708_259299# a_365708_259299# w_364522_258756# w_364522_258756# pfet_03v3 ad=6p pd=21.2u as=6p ps=21.2u w=10u l=2u
X65 w_364522_258756# w_364522_258756# w_364522_258756# w_364522_258756# pfet_03v3 ad=5.8p pd=21.16u as=0 ps=0 w=10u l=2u
X66 a_376520_259212# a_376520_259212# a_376520_259212# a_376520_259212# nfet_03v3 ad=2.32p pd=9.16u as=0 ps=0 w=4u l=1u
X67 a_376520_259212# a_376520_259212# a_376520_259212# a_376520_259212# nfet_03v3 ad=2.32p pd=9.16u as=0 ps=0 w=4u l=1u
X68 a_365828_259091# a_365828_259091# a_365708_259299# w_364522_258756# pfet_03v3 ad=6p pd=21.2u as=6p ps=21.2u w=10u l=2u
X69 a_377450_262205# a_377450_262205# a_376520_259212# a_376520_259212# nfet_03v3 ad=4.8p pd=17.2u as=4.8p ps=17.2u w=8u l=1u
X70 a_365828_259091# a_365828_259091# a_365708_259299# w_364522_258756# pfet_03v3 ad=6p pd=21.2u as=6p ps=21.2u w=10u l=2u
X71 a_409618_260539# a_404041_244568# a_376520_259212# a_376520_259212# nfet_03v3 ad=2.4p pd=9.2u as=2.4p ps=9.2u w=4u l=1u
X72 w_364522_258756# w_364522_258756# w_364522_258756# w_364522_258756# pfet_03v3 ad=5.8p pd=21.16u as=0 ps=0 w=10u l=2u
X73 a_383940_262205# a_383940_262205# a_386992_259299# w_364522_258756# pfet_03v3 ad=6p pd=21.2u as=6p ps=21.2u w=10u l=2u
X74 a_377450_262205# a_377450_262205# a_376520_259212# a_376520_259212# nfet_03v3 ad=4.8p pd=17.2u as=4.8p ps=17.2u w=8u l=1u
X75 a_411044_242557# a_402461_244568# a_376520_259212# a_376520_259212# nfet_03v3 ad=2.4p pd=9.2u as=2.4p ps=9.2u w=4u l=1u
X76 a_376520_259212# a_376520_259212# a_376520_259212# a_376520_259212# nfet_03v3 ad=2.32p pd=9.16u as=0 ps=0 w=4u l=1u
X77 a_365828_259091# a_365828_259091# a_365708_259299# w_364522_258756# pfet_03v3 ad=6p pd=21.2u as=6p ps=21.2u w=10u l=2u
X78 a_401151_244568# a_365828_265695# w_364522_258756# w_364522_258756# pfet_03v3 ad=6p pd=21.2u as=6p ps=21.2u w=10u l=2u
X79 a_377450_262205# a_377450_262205# a_376520_259212# a_376520_259212# nfet_03v3 ad=4.8p pd=17.2u as=4.8p ps=17.2u w=8u l=1u
X80 a_374398_259299# a_374398_259299# a_377450_262205# a_376520_259212# nfet_03v3 ad=4.8p pd=17.2u as=4.8p ps=17.2u w=8u l=1u
X81 a_402461_244568# a_402461_244568# a_376520_259212# a_376520_259212# nfet_03v3 ad=2.4p pd=9.2u as=2.4p ps=9.2u w=4u l=1u
X82 w_364522_258756# w_364522_258756# w_364522_258756# w_364522_258756# pfet_03v3 ad=5.8p pd=21.16u as=0 ps=0 w=10u l=2u
X83 a_383940_262205# a_383940_262205# a_386992_259299# w_364522_258756# pfet_03v3 ad=6p pd=21.2u as=6p ps=21.2u w=10u l=2u
X84 a_374398_259299# a_374398_259299# a_377450_262205# a_376520_259212# nfet_03v3 ad=4.8p pd=17.2u as=4.8p ps=17.2u w=8u l=1u
X85 w_364522_258756# w_364522_258756# w_364522_258756# w_364522_258756# pfet_03v3 ad=5.8p pd=21.16u as=0 ps=0 w=10u l=2u
X86 a_404041_244568# a_409618_256263# a_409618_260539# a_376520_259212# nfet_03v3 ad=2.4p pd=9.2u as=2.4p ps=9.2u w=4u l=1u
X87 a_386992_259299# a_386992_259299# w_364522_258756# w_364522_258756# pfet_03v3 ad=6p pd=21.2u as=6p ps=21.2u w=10u l=2u
X88 a_404831_244568# a_401271_243528# a_404311_244568# w_364522_258756# pfet_03v3 ad=6p pd=21.2u as=6p ps=21.2u w=10u l=2u
X89 a_386992_259299# a_386992_259299# w_364522_258756# w_364522_258756# pfet_03v3 ad=6p pd=21.2u as=6p ps=21.2u w=10u l=2u
X90 w_364522_258756# w_364522_258756# w_364522_258756# w_364522_258756# pfet_03v3 ad=5.8p pd=21.16u as=0 ps=0 w=10u l=2u
X91 a_374398_259299# a_374398_259299# a_377450_262205# a_376520_259212# nfet_03v3 ad=4.8p pd=17.2u as=4.8p ps=17.2u w=8u l=1u
X92 a_386992_259299# a_386992_259299# w_364522_258756# w_364522_258756# pfet_03v3 ad=6p pd=21.2u as=6p ps=21.2u w=10u l=2u
X93 a_365828_259091# a_365828_259091# a_365708_259299# w_364522_258756# pfet_03v3 ad=6p pd=21.2u as=6p ps=21.2u w=10u l=2u
X94 a_365708_259299# a_365708_259299# w_364522_258756# w_364522_258756# pfet_03v3 ad=6p pd=21.2u as=6p ps=21.2u w=10u l=2u
X95 a_365708_259299# a_365708_259299# w_364522_258756# w_364522_258756# pfet_03v3 ad=6p pd=21.2u as=6p ps=21.2u w=10u l=2u
X96 a_401271_243528# a_401271_243528# a_401151_244568# w_364522_258756# pfet_03v3 ad=6p pd=21.2u as=6p ps=21.2u w=10u l=2u
X97 a_386992_259299# a_386992_259299# w_364522_258756# w_364522_258756# pfet_03v3 ad=6p pd=21.2u as=6p ps=21.2u w=10u l=2u
X98 a_403521_244568# a_401151_244568# w_364522_258756# w_364522_258756# pfet_03v3 ad=6p pd=21.2u as=6p ps=21.2u w=10u l=2u
X99 a_386992_259299# a_386992_259299# w_364522_258756# w_364522_258756# pfet_03v3 ad=6p pd=21.2u as=6p ps=21.2u w=10u l=2u
X100 a_365708_259299# a_365708_259299# w_364522_258756# w_364522_258756# pfet_03v3 ad=6p pd=21.2u as=6p ps=21.2u w=10u l=2u
X101 a_410724_251737# a_410134_251737# a_376520_259212# a_376520_259212# nfet_03v3 ad=2.4p pd=9.2u as=2.4p ps=9.2u w=4u l=1u
X102 a_409618_256263# a_409498_256643# a_376520_259212# a_376520_259212# nfet_03v3 ad=2.4p pd=9.2u as=2.4p ps=9.2u w=4u l=1u
X103 a_411044_251737# a_403251_244568# a_410724_251737# a_376520_259212# nfet_03v3 ad=2.4p pd=9.2u as=2.4p ps=9.2u w=4u l=1u
X104 a_409818_256643# a_409618_256263# a_409498_256643# a_376520_259212# nfet_03v3 ad=2.4p pd=9.2u as=2.4p ps=9.2u w=4u l=1u
X105 a_386992_259299# a_365828_265695# w_364522_258756# w_364522_258756# pfet_03v3 ad=6p pd=21.2u as=6p ps=21.2u w=10u l=2u
X106 a_383940_262205# a_383940_262205# a_386992_259299# w_364522_258756# pfet_03v3 ad=6p pd=21.2u as=6p ps=21.2u w=10u l=2u
X107 a_410134_251737# a_410134_251737# a_376520_259212# a_376520_259212# nfet_03v3 ad=2.4p pd=9.2u as=2.4p ps=9.2u w=4u l=1u
X108 a_403251_244568# a_403251_244568# a_410134_251737# a_376520_259212# nfet_03v3 ad=2.4p pd=9.2u as=2.4p ps=9.2u w=4u l=1u
X109 a_383940_262205# a_383940_262205# a_386992_259299# w_364522_258756# pfet_03v3 ad=6p pd=21.2u as=6p ps=21.2u w=10u l=2u
X110 a_383940_262205# a_383940_262205# a_386992_259299# w_364522_258756# pfet_03v3 ad=6p pd=21.2u as=6p ps=21.2u w=10u l=2u
X111 a_409818_256643# a_409618_256263# a_409498_256643# a_376520_259212# nfet_03v3 ad=2.4p pd=9.2u as=2.4p ps=9.2u w=4u l=1u
X112 a_365828_259091# a_365828_259091# a_365708_259299# w_364522_258756# pfet_03v3 ad=6p pd=21.2u as=6p ps=21.2u w=10u l=2u
X113 a_376520_259212# a_376520_259212# a_376520_259212# a_376520_259212# nfet_03v3 ad=2.32p pd=9.16u as=0 ps=0 w=4u l=1u
X114 a_377450_262205# a_377450_262205# a_376520_259212# a_376520_259212# nfet_03v3 ad=4.8p pd=17.2u as=4.8p ps=17.2u w=8u l=1u
X115 a_377450_262205# a_377450_262205# a_376520_259212# a_376520_259212# nfet_03v3 ad=4.8p pd=17.2u as=4.8p ps=17.2u w=8u l=1u
X116 a_365828_259091# a_365828_259091# a_365708_259299# w_364522_258756# pfet_03v3 ad=6p pd=21.2u as=6p ps=21.2u w=10u l=2u
X117 a_383940_262205# a_383940_262205# a_386992_259299# w_364522_258756# pfet_03v3 ad=6p pd=21.2u as=6p ps=21.2u w=10u l=2u
X118 a_376520_259212# a_376520_259212# a_376520_259212# a_376520_259212# nfet_03v3 ad=2.32p pd=9.16u as=0 ps=0 w=4u l=1u
X119 a_383940_262205# a_383940_262205# a_386992_259299# w_364522_258756# pfet_03v3 ad=6p pd=21.2u as=6p ps=21.2u w=10u l=2u
X120 a_365828_259091# a_365828_259091# a_365708_259299# w_364522_258756# pfet_03v3 ad=6p pd=21.2u as=6p ps=21.2u w=10u l=2u
X121 a_383620_262205# a_377450_262205# a_376520_259212# a_376520_259212# nfet_03v3 ad=4.8p pd=17.2u as=4.8p ps=17.2u w=8u l=1u
X122 a_377450_262205# a_377450_262205# a_376520_259212# a_376520_259212# nfet_03v3 ad=4.8p pd=17.2u as=4.8p ps=17.2u w=8u l=1u
X123 a_373878_259299# a_365708_259299# w_364522_258756# w_364522_258756# pfet_03v3 ad=6p pd=21.2u as=6p ps=21.2u w=10u l=2u
X124 a_374398_259299# a_374398_259299# a_377450_262205# a_376520_259212# nfet_03v3 ad=4.8p pd=17.2u as=4.8p ps=17.2u w=8u l=1u
X125 a_409498_256643# a_404041_244568# a_376520_259212# a_376520_259212# nfet_03v3 ad=2.4p pd=9.2u as=2.4p ps=9.2u w=4u l=1u
X126 a_401151_244568# a_365828_265695# w_364522_258756# w_364522_258756# pfet_03v3 ad=6p pd=21.2u as=6p ps=21.2u w=10u l=2u
X127 a_374398_259299# a_374398_259299# a_377450_262205# a_376520_259212# nfet_03v3 ad=4.8p pd=17.2u as=4.8p ps=17.2u w=8u l=1u
X128 w_364522_258756# w_364522_258756# w_364522_258756# w_364522_258756# pfet_03v3 ad=5.8p pd=21.16u as=0 ps=0 w=10u l=2u
X129 w_364522_258756# w_364522_258756# w_364522_258756# w_364522_258756# pfet_03v3 ad=5.8p pd=21.16u as=0 ps=0 w=10u l=2u
X130 a_403251_244568# a_401271_243528# a_402731_244568# w_364522_258756# pfet_03v3 ad=6p pd=21.2u as=6p ps=21.2u w=10u l=2u
X131 a_386992_259299# a_386992_259299# w_364522_258756# w_364522_258756# pfet_03v3 ad=6p pd=21.2u as=6p ps=21.2u w=10u l=2u
X132 a_383940_262205# a_374398_259299# a_383620_262205# a_376520_259212# nfet_03v3 ad=4.8p pd=17.2u as=4.8p ps=17.2u w=8u l=1u
X133 a_374398_259299# a_374398_259299# a_377450_262205# a_376520_259212# nfet_03v3 ad=4.8p pd=17.2u as=4.8p ps=17.2u w=8u l=1u
C0 a_401941_244568# a_404831_244568# 0.13684f
C1 a_403521_244568# a_402731_244568# 0.84407f
C2 a_409618_256263# a_404041_244568# 1.45171f
C3 a_404041_244568# a_403251_244568# 0.33183f
C4 a_365828_265695# a_365708_259299# 0.74385f
C5 a_404041_244568# a_409618_260539# 3.00275f
C6 a_403521_244568# a_401941_244568# 0.34178f
C7 a_365828_265695# a_402731_244568# 0.0069f
C8 a_401941_244568# a_365828_265695# 0.00563f
C9 a_404041_244568# w_364522_258756# 1.72336f
C10 a_365828_265695# a_365828_259091# 0.00331f
C11 a_373878_259299# a_365708_259299# 0.98664f
C12 a_404311_244568# a_402731_244568# 0.30154f
C13 a_404311_244568# a_401941_244568# 0.30103f
C14 a_373878_259299# a_365828_259091# 0.99903f
C15 a_386992_259299# a_365828_265695# 0.7554f
C16 a_410724_251737# a_411044_251737# 1.15251f
C17 a_410134_251737# a_411044_251737# 0.0849f
C18 a_401271_243528# a_402731_244568# 0.63243f
C19 a_410134_251737# a_410724_251737# 0.36588f
C20 a_411044_242557# a_402461_244568# 0.20751f
C21 a_401941_244568# a_401271_243528# 2.86501f
C22 a_404041_244568# a_404831_244568# 2.48301f
C23 a_374398_259299# a_365708_259299# 0.07017f
C24 a_404041_244568# a_403521_244568# 2.39829f
C25 a_411044_251737# a_403251_244568# 0.2042f
C26 a_365828_259091# a_374398_259299# 0.50349f
C27 a_410724_251737# a_403251_244568# 1.45997f
C28 a_409498_256643# a_409818_256643# 2.17202f
C29 a_410134_251737# a_403251_244568# 1.85176f
C30 a_401151_244568# a_402461_244568# 0.13364f
C31 w_364522_258756# a_383940_262205# 15.504f
C32 a_409618_256263# a_409818_256643# 0.57687f
C33 a_409818_256643# a_409618_260539# 0.0136f
C34 a_404311_244568# a_404041_244568# 2.29591f
C35 a_401151_244568# a_403251_244568# 0.13521f
C36 a_409618_256263# a_409498_256643# 3.29507f
C37 a_409498_256643# a_409618_260539# 0.36393f
C38 a_395682_259299# a_383940_262205# 0.50349f
C39 a_403251_244568# a_402461_244568# 0.58599f
C40 a_401151_244568# w_364522_258756# 44.8668f
C41 a_386992_259299# a_395162_259299# 0.98664f
C42 a_401941_244568# a_402731_244568# 0.84535f
C43 a_409618_256263# a_409618_260539# 3.58908f
C44 a_365828_259091# a_365708_259299# 29.489f
C45 w_364522_258756# a_402461_244568# 1.21291f
C46 a_403251_244568# w_364522_258756# 1.12778f
C47 a_404041_244568# a_401271_243528# 0.62193f
C48 a_383620_262205# a_383940_262205# 1.13981f
C49 a_395682_259299# w_364522_258756# 1.49117f
C50 a_365828_265695# a_383940_262205# 0.01792f
C51 a_401151_244568# a_404831_244568# 0.98673f
C52 a_401151_244568# a_403521_244568# 1.46461f
C53 a_404831_244568# a_402461_244568# 0.08091f
C54 a_401151_244568# a_365828_265695# 2.15734f
C55 a_409618_256263# a_404831_244568# 0.12451f
C56 a_403521_244568# a_402461_244568# 0.10043f
C57 a_404041_244568# a_402731_244568# 0.17025f
C58 a_403251_244568# a_404831_244568# 0.08038f
C59 a_404831_244568# a_409618_260539# 0
C60 a_403251_244568# a_403521_244568# 2.29847f
C61 a_404041_244568# a_401941_244568# 0.17047f
C62 w_364522_258756# a_404831_244568# 2.87066f
C63 a_403521_244568# w_364522_258756# 7.51371f
C64 a_401151_244568# a_404311_244568# 2.37681f
C65 w_364522_258756# a_365828_265695# 19.3145f
C66 a_404311_244568# a_402461_244568# 0.10003f
C67 a_383620_262205# a_377450_262205# 0.52252f
C68 a_404311_244568# a_403251_244568# 0.10042f
C69 a_374398_259299# a_383940_262205# 0.28491f
C70 a_373878_259299# w_364522_258756# 3.05677f
C71 a_404311_244568# w_364522_258756# 6.35462f
C72 a_401151_244568# a_401271_243528# 3.41485f
C73 a_383940_262205# a_395162_259299# 0.99903f
C74 a_401271_243528# a_402461_244568# 0.63416f
C75 a_403251_244568# a_401271_243528# 0.62309f
C76 a_403521_244568# a_404831_244568# 0.13662f
C77 w_364522_258756# a_401271_243528# 14.5258f
C78 a_403521_244568# a_365828_265695# 0.00915f
C79 w_364522_258756# a_374398_259299# 1.76606f
C80 w_364522_258756# a_395162_259299# 3.05677f
C81 a_401151_244568# a_402731_244568# 1.46427f
C82 a_404311_244568# a_404831_244568# 2.35844f
C83 a_401151_244568# a_401941_244568# 1.80913f
C84 a_404311_244568# a_403521_244568# 0.80509f
C85 a_402731_244568# a_402461_244568# 2.30103f
C86 a_395682_259299# a_395162_259299# 0.8533f
C87 a_373878_259299# a_365828_265695# 0
C88 a_404311_244568# a_365828_265695# 0.28741f
C89 a_401941_244568# a_402461_244568# 2.41261f
C90 a_403251_244568# a_402731_244568# 2.40482f
C91 a_386992_259299# a_383940_262205# 29.4825f
C92 a_403251_244568# a_401941_244568# 0.17152f
C93 w_364522_258756# a_365708_259299# 48.8544f
C94 a_377450_262205# a_374398_259299# 36.6185f
C95 w_364522_258756# a_402731_244568# 7.43186f
C96 a_401271_243528# a_404831_244568# 0.54995f
C97 a_383620_262205# a_374398_259299# 0.86502f
C98 a_401941_244568# w_364522_258756# 7.43338f
C99 a_403521_244568# a_401271_243528# 0.62333f
C100 w_364522_258756# a_365828_259091# 16.3092f
C101 a_365828_265695# a_374398_259299# 0.01878f
C102 a_365828_265695# a_395162_259299# 0
C103 a_386992_259299# w_364522_258756# 48.8285f
C104 a_404311_244568# a_401271_243528# 0.62105f
C105 a_409818_256643# a_404041_244568# 0.00933f
C106 a_401151_244568# a_404041_244568# 0.59986f
C107 a_409498_256643# a_404041_244568# 0.85546f
C108 a_373878_259299# a_374398_259299# 0.91714f
C109 a_395682_259299# a_386992_259299# 0.06695f
C110 a_404831_244568# a_402731_244568# 0.13558f
C111 a_404041_244568# a_402461_244568# 0.10021f
C112 a_411044_242557# a_376520_259212# 6.1069f
C113 a_411044_251737# a_376520_259212# 4.75873f
C114 a_410724_251737# a_376520_259212# 2.90137f
C115 a_410134_251737# a_376520_259212# 6.39712f
C116 a_409818_256643# a_376520_259212# 5.97383f
C117 a_409498_256643# a_376520_259212# 8.54632f
C118 a_409618_256263# a_376520_259212# 12.5882f
C119 a_409618_260539# a_376520_259212# 7.6582f
C120 a_404831_244568# a_376520_259212# 10.5405f
C121 a_404041_244568# a_376520_259212# 11.5785f
C122 a_403251_244568# a_376520_259212# 5.05938f
C123 a_402461_244568# a_376520_259212# 7.97268f
C124 a_401271_243528# a_376520_259212# 2.45016f
C125 a_404311_244568# a_376520_259212# 0.15844f
C126 a_403521_244568# a_376520_259212# 0.03326f
C127 a_402731_244568# a_376520_259212# 0.03284f
C128 a_401941_244568# a_376520_259212# 0.03295f
C129 a_401151_244568# a_376520_259212# 2.60775f
C130 a_395682_259299# a_376520_259212# 0.40915f
C131 a_395162_259299# a_376520_259212# 0.29295f
C132 a_383940_262205# a_376520_259212# 4.92556f
C133 a_383620_262205# a_376520_259212# 2.7563f
C134 a_377450_262205# a_376520_259212# 40.1477f
C135 a_374398_259299# a_376520_259212# 12.9247f
C136 a_365828_259091# a_376520_259212# 25.3712f
C137 a_373878_259299# a_376520_259212# 0.20081f
C138 a_386992_259299# a_376520_259212# 3.24772f
C139 a_365708_259299# a_376520_259212# 3.20723f
C140 a_365828_265695# a_376520_259212# 24.117f
C141 w_364522_258756# a_376520_259212# 0.94999p
.ends

.subckt TOP CCM_OUT PU VDD VSS VIN_OUT BCM_OUT VCM_OUT VIN VBIAS EN PD
Xsc_tieh_tiel$1_0 PD PU sc_tieh_tiel$1_0/gf180mcu_fd_sc_mcu9t5v0__tieh$2_0/a_125_157#
+ VDD sc_tieh_tiel$1_0/gf180mcu_fd_sc_mcu9t5v0__tiel$3_0/a_124_157# VSS sc_tieh_tiel$1
Xio_secondary_5p0$1_0 EN m3_419992_265695# VSS VDD io_secondary_5p0$1
XM_0 M_0/a_402461_244568# M_0/a_410134_251737# VSS M_0/a_403521_244568# a_499016_248165#
+ BCM_OUT m4_400150_261569# M_0/a_409618_260539# VIN_OUT a_498947_268180# CCM_OUT
+ M_0/a_403251_244568# m3_419992_265695# M_0/a_404311_244568# VSS M_0/a_401941_244568#
+ m4_400150_261569# M_0/a_404041_244568# M_0/a_409498_256643# M_0/a_402731_244568#
+ M_0/a_401151_244568# VCM_OUT VDD M
D0 a_498947_268180# VDD diode_pd2nw_06v0 pj=40u area=99.99999p
D1 a_498947_268180# VDD diode_pd2nw_06v0 pj=40u area=99.99999p
D2 VSS a_499016_248165# diode_nd2ps_06v0 pj=40u area=99.99999p
X0 a_498947_268180# VIN VDD ppolyf_u r_width=40u r_length=10u
D3 a_499016_248165# VDD diode_pd2nw_06v0 pj=40u area=99.99999p
D4 a_499016_248165# VDD diode_pd2nw_06v0 pj=40u area=99.99999p
D5 VSS a_499016_248165# diode_nd2ps_06v0 pj=40u area=99.99999p
D6 a_498947_268180# VDD diode_pd2nw_06v0 pj=40u area=99.99999p
D7 VSS a_498947_268180# diode_nd2ps_06v0 pj=40u area=99.99999p
D8 a_499016_248165# VDD diode_pd2nw_06v0 pj=40u area=99.99999p
D9 a_499016_248165# VDD diode_pd2nw_06v0 pj=40u area=99.99999p
D10 VSS a_498947_268180# diode_nd2ps_06v0 pj=40u area=99.99999p
D11 VSS a_499016_248165# diode_nd2ps_06v0 pj=40u area=99.99999p