

.subckt BIASED_BASE VIN VOUT VDD
XBIASED_BASE_A VIN VIN VTBL VDD pfet_03v3 l=1 w=8 m=10
XBIASED_BASE_B VTBL VTBL VDD VDD pfet_03v3 l=1 w=8 m=10
XBIASED_BASE_C VOUT VIN VTBR VDD pfet_03v3 l=1 w=8 m=1
XBIASED_BASE_D VTBR VTBL VDD VDD pfet_03v3 l=1 w=8 m=1
XBIASED_BASE_DUMMY VDD VDD VDD VDD pfet_03v3 l=1 w=8 m=4
.ends BIASED_BASE